powerflow/Codes/PF_Formulation/resultados_csv/19/5busfrank_ctaf/barras.csv
caso,script,bus_id,vm_pu,va_rad,pd_pu,qd_pu,pg_pu,qg_pu,bus_type
5busfrank_ctaf.pwf,19,1,1.0290000000399842,0.0,0.0,0.0,0.46376503412608083,0.06898686960638502,3
5busfrank_ctaf.pwf,19,2,1.0125846074813665,-0.021726884983581107,0.0,0.0,0.12990000000000002,0.14858999491070732,2
5busfrank_ctaf.pwf,19,3,0.9478322065525173,-0.04084151726057978,0.5039,0.10300000000000001,0.0,0.0,1
5busfrank_ctaf.pwf,19,4,0.9921758691159712,-0.030099100973697744,0.0239,0.053,0.0,0.0,1
5busfrank_ctaf.pwf,19,5,0.9894172366706787,-0.024623656371818427,0.0239,0.053,0.0,0.0,1
